
#  COPYRIGHT NOTICE
#  
#  Silico - A Perl Molecular Toolkit
#  Copyright (C) 2008-25 David K. Chalmers and Benjamin P. Roberts,
#  Department of Medicinal Chemistry, Monash University
#  
#  This program is free software: you can redistribute it and/or modify
#  it under the terms of the GNU General Public License as published by
#  the Free Software Foundation, either version 3 of the License, or
#  (at your option) any later version.
#  
#  This program is distributed in the hope that it will be useful,
#  but WITHOUT ANY WARRANTY; without even the implied warranty of
#  MERCHANTABILITY or FITNESS FOR A PARTICULAR PURPOSE.  See the
#  GNU General Public License for more details.
#  
#  You should have received a copy of the GNU General Public License
#  along with this program.  If not, see <http://www.gnu.org/licenses/>.

#
# Ions and small things
#


@<TRIPOS>MOLECULE
Chloride
1	0	1	0	0
PROTEIN
USER_CHARGES


@<TRIPOS>ATOM
      1   CL    21.359000    39.203000    12.051000    Cl     1 CL503   0.00000 
@<TRIPOS>BOND
@<TRIPOS>SUBSTRUCTURE
1	CL503	1	GROUP	0	A	1	CL	ROOT

@<TRIPOS>MOLECULE
Sodium
1	0	1	0	0
PROTEIN
USER_CHARGES


@<TRIPOS>ATOM
      1   NA    24.023000    40.063000     1.443000    Na     1 NA501   0.00000 
@<TRIPOS>BOND
@<TRIPOS>SUBSTRUCTURE
1	NA501	1	GROUP	0	A	1	NA	ROOT

@<TRIPOS>ATOM
      1   O    24.023000    40.063000     1.443000    O.3     1 HOH1    0.00000 
@<TRIPOS>BOND
@<TRIPOS>SUBSTRUCTURE
1	HOH1	1	GROUP	0	A	1	HOH	ROOT
